*************************************************************************
*  (C)  Copyright 2018 Toshiba Electronic Devices & Storage Corporation
*  Date:                28/11/2018
*  File name:           TLP2362.lib
*  Part number:         TLP2362
*  Parameter ver.:      Ver.1.1
*  Simulator:           PSpice
*  Model call name:     TLP2362
*  TNOM:                25 degree
*  Pin Assign:          1=Anode 3=Cathode 4=GND 5=VO 6=VCC
*
* Operation of this model has been verified only on the OrCAD.
*************************************************************************

**$ENCRYPTED_LIB
**$INTERFACE


.SUBCKT TLP2362 1 3 4 5 6  
$CDNENCSTART_ADV2
17f62b1fb318c25603aeb85644ae98a5d179ef807807791f6459efacb9d7ffc35a73a37243d4cce46a460e928d7c8f9c39ee99122a9d3f96f7d47fafa32ba578
b22cf0d51a0b78347962bd0d0c02b1e7a600d831f3e1fb4eaf212c2fcd8a357b23dd81d5fabb3d0fb2bc2d838d8c794ce276d04ea4b13e9167920c43e32e7ad6
afd45cb1436c516a42713cabad55c0c17f5b43ea3694294faa336daeaa0e3906b3730da87f779f764e380fa83a6bc1a2cc8bc4a083006eb990fb5bafeb512815
5ac5af81fb3ba846323316d4648cd3da137461ca61ef7ea99d0907139bce46686c97407fbc736242f6d0a0247e7a9e5d7a4a0376e5c10898cf8cbfc0a1a30afb
e2aa4ab4cf145ffc6662bd598c16d1adc9e64e16edccf00d9309003838666d3ca2ef699dee0cd521941c0557d5716a97cc8bc4a083006eb990fb5bafeb512815
0b78aab0d7c6fdfe71ed6e06ce60146afc440bc18091c6bb0d74b4a7d846e1583753573bf9c2e3590e0ce7aee1bd8d0f7a4a0376e5c10898cf8cbfc0a1a30afb
0f9e366abd949afca72e314dbc43297185ffaf5b1761ef21a478194eaeb2b2aa24c9560a226f46dce8b63a68adb35056c345abedd60ddc274940d31606d37c41
e3b9c1cd78e70f7c556f2226e7b4fb08f31ab78090d830421f323d212bd90c0716e0fa76ad618e36f763b8ed83555d8e140534f9764bc40ae41d31dbe85d488b
4b6d2235d4efcc30aec501137c64f3bf6d851e2bb83827f0c60fc53674ca0104572195fe828e37601cbf28b266b050f5cc8bc4a083006eb990fb5bafeb512815
bdbbab399f8cbc1b7433c633d8e62902c4b967e0a415205c0aab19b1f588a814009688aeea12135b8d08c3043c6b7f8f8abeebf630388ced248878ecee64a220
27752337933ff8707f32a9754d497573f221b904429f87f011bebd81e0b4d62a0c2607bf6ff60b939a41c570fe753c84a1cb49c1824b7bdf7f29923438dd23d3
43f5b720e3c3448304a0f19fd2853c05cc5da4862f2ead321271541c7ffaa191009688aeea12135b8d08c3043c6b7f8f87769679d5e898770cce85ba2bf6e563
de81d803a6be33585e8a873d80dd818d2ca30276ab2139ea6dde2cdc9ee8107cf1e617fb35e4f60301aac79a5b3d6db173fbd2dafb06f4fac1cd36df5e2350bb
5d32cd3f9e755e165b534fa4f68138843368e8c706da9813375ff3f311522582d43ba090c6228d04e506e147c6700e3ef3f93c92728efb705eb4905c3885cb9e
9fc6f960dc99d6dab3584662f36601833e4e4d5352f1060b336fa8de4bfa78ed017710be06d4c1b0b5ecebe157507b3fe29459157d4363ce371e352106aaec42
b4fd6c74c9a6d14fd5135f5494a39677fe336c22351ab21f4130886a99eda5f5504b4cd1e9792fce718cf2c836db95cbe987f3498564405e6ed727af0a06a6d2
3a9b05d3c83fc3285bc19badb134eb8070c96feec63834a3878b21d23d19d1d271224618b84aeb06867f5e2c08453b8fb9c512309e10ff6b3cf907f2264b989d
31d8e6ff7947f9203a221b01e3c46b8c4230082850d7792f01f8c66bb7198ebb0695deeb0634a8c4bf82c8b6e886275b95bf53b07137b4764f15080238bf4461
60e2f7284c169341e5d023a8b655fbc366ee9bba7b68b724dcc40b4de4837635f4f10d412e85b3641defb072ef220aa6e36bec6b145f07f16068e41cc087a747
d73085dd89139f3d9c7a8522ad57990315a9b8be2a1459a3eea35d514ecde1111dc232113d104876051aa0261cd96f7b85bf016f58541e10c92226ac84209599
40827a3b01e2bbb8d5a1e6fd617e570b6135baae12936c2f40c0924fc85face66d208603a0ffa8c24038ae40ec2217255d94d5add903eee84a256217b9ef85fb
f77e845985274bcd18f1ebfa13dd97537166bff06575600d0112be1c76c50cb837f532a49d9e7d9a95c833a095aeaab70899c2c7fc2f6e5ff897aa01e4074ed8
05dc418ad16b7a89f56ef50bc2dccb713d0af826acfd837d130ba69b2812c509d7ce9e230dd5bae4cba1388cd5165ce8190652c98a97ba1d3f5b16034a23596b
99c12a2e8e370226d591f9ba4188362a46a3eb8c4afb25ca83b266f7161da714967d851ed2731c954f499983bfae943c17fe42daa2019a6c7217143b2042f157
05c91d1eea9203fb763157a68cee0059d6ccf08f37a8b79e6fd975f3ee7834796c97407fbc736242f6d0a0247e7a9e5d7a4a0376e5c10898cf8cbfc0a1a30afb
c9234b6e61d396054d1fae6c607ce0e8075fdbe4346f5752b5bfe3b911860cdb4c18009be63fd1a4a70c385a5a176b6b6ee28158fe216f5c5ee27d3daf451891
eff4114c267b67e820f66c451fa0924a1482c2340ee6efd2959b0a1e63d3ec069477c26a2f4e593e3ba20bbc99e62af11e1ec8387ef42bb1f62c0426546091d9
8781d78cf336e0751f6f5b4600724917907ffbe6eda1bcbf066a6dc1837abcd6c07d4187d8bd55c3c6fee4387beb6ce584cdfaf92b175739eaff4b4fddead55e
ff7495f525257910bd2d3feb6784432314160b1b42378606fef825f1bdb22632b60e143b8a6ba4adbcb1ca1d5299eff9234fd0232ffeb21acc016f22343c09ce
79fe4bed67c9af67433be6b14bb0813ab231c07709c90c6a5ecbaf8ef1219a6aa2ef699dee0cd521941c0557d5716a97cc8bc4a083006eb990fb5bafeb512815
b5d829117f8174e7acf379cd92a4031c44598a095c2afb4abc87d18f46ee7c99c4b75d5f7ca166700f3620ccb26dc928af7be3860c449b4af2c9baf0877188f7
d81066f0b73d8272229ff6373e60481d77e630a2911700ec89ec5283bfcfff89bb4a67d422dcea3f08b2251fc8199db3823043fe744e2b46769cfef6a78d333c
0fc8f38ceb21b2ed0175b7921e816a1f504b4cd1e9792fce718cf2c836db95cbe60b8dd3be16eb68a43759831dc90e9b03485bd757a1477cbc15ec9c778f959a
9d33481ff308c42d897c6ea41065014bebac87cdf347eb9cec31ba43d81d5d19be5badcb45d9af3dc40b8512cce133ab7ea689840fefc1b4bda4b7192776057a
9b249f8966946030d89028ac302b63c5ee0142da88382e01f3f5d9bcdf83e54abf749f5f96325d78cf6065b245658418e0fcaa80c54932e3ed57fcb5fc364250
06032e37b167671bacf9cd076f4316a1224ec1229d1fb1550959be60dd7abb1aa4598c6d825eea5707d0dca517d3f59fe29459157d4363ce371e352106aaec42
$CDNENCFINISH_ADV2
.ENDS


.SUBCKT TLP2362_S1 1 2 3 4  
$CDNENCSTART_ADV2
17f62b1fb318c25603aeb85644ae98a5d179ef807807791f6459efacb9d7ffc35a73a37243d4cce46a460e928d7c8f9c39ee99122a9d3f96f7d47fafa32ba578
c930e37300f38a9bbe60866f21c99b5b6f0fbbc5f8a36dd82970f6d46ca982124177738f7eb36eebc39e6ab2dc3ba5f9b22daa79e78fd32ddd9cb6a7628f6609
a02aa796df6e417d0f6c80e0abb26babd13764e6b2fd3553f66360c4861844d0f31ab78090d830421f323d212bd90c07d259141ea77548b4659f053f5c414e39
f4672e0e4353f22ac0200a4fd8e7440623f64c61477cffce5a4537b2834df8b9842f41f031a419aad9af082b7ddd744b644954620f436407719cb87523dfe378
$CDNENCFINISH_ADV2
.ENDS


.SUBCKT TLP2362_S2 1 2 3 4  
$CDNENCSTART_ADV2
17f62b1fb318c25603aeb85644ae98a5d179ef807807791f6459efacb9d7ffc35a73a37243d4cce46a460e928d7c8f9c39ee99122a9d3f96f7d47fafa32ba578
d5faa2380903a8d15ea5c1c4b481297524a50f03158c5872ce330b1c0e7c82f54177738f7eb36eebc39e6ab2dc3ba5f9b22daa79e78fd32ddd9cb6a7628f6609
6fcc1ede30bbfe34a8e380eb86498e86d13764e6b2fd3553f66360c4861844d0f31ab78090d830421f323d212bd90c07d259141ea77548b4659f053f5c414e39
f4672e0e4353f22ac0200a4fd8e74406538efaad288848e34249e1c537dedf2f974f5bca92e80a12a49ae36584a9905074f2758e6c9896c561a0fa0c5cd1724a
$CDNENCFINISH_ADV2
.ENDS


.SUBCKT TLP2362_S3 1 2 3 4  
$CDNENCSTART_ADV2
17f62b1fb318c25603aeb85644ae98a5d179ef807807791f6459efacb9d7ffc35a73a37243d4cce46a460e928d7c8f9c39ee99122a9d3f96f7d47fafa32ba578
492f3f729b61dc1e516976593177a332fb7508c93ecc4a94dd43a823055dc8a24177738f7eb36eebc39e6ab2dc3ba5f9b22daa79e78fd32ddd9cb6a7628f6609
e68255636ea31797eef504c5adaf6b0cd13764e6b2fd3553f66360c4861844d0f31ab78090d830421f323d212bd90c07d259141ea77548b4659f053f5c414e39
f4672e0e4353f22ac0200a4fd8e74406dfbb0c8b7f607aca085d85d43cceb70e974f5bca92e80a12a49ae36584a9905049ecf66cf955e9f9d5227ae29f791151
$CDNENCFINISH_ADV2
.ENDS


.MODEL DTLP2362_1 D 
$CDNENCSTART_ADV2
17f62b1fb318c25603aeb85644ae98a5d179ef807807791f6459efacb9d7ffc35a73a37243d4cce46a460e928d7c8f9c39ee99122a9d3f96f7d47fafa32ba578
ebc6c9bdaebc4b994549ca2e40ece97f9477c26a2f4e593e3ba20bbc99e62af108a8c2d9228eac072a6ec9d6fa951bcc6481076e4ede9ab101ee89d6be643b25
828cfd9da0b5defe756a3d0dabce768b15a9b8be2a1459a3eea35d514ecde1111dc232113d104876051aa0261cd96f7b85bf016f58541e10c92226ac84209599
1f309835b814b0308fe8cd37cac34c429f23ca5c8455a8116fe39b71151e6ebcc0169c55103782ffcaec65fc394c49e3936ab2e099df9c102d896095dbeda9f1
e3384a84d1583e0544d3420769cd8fd6ba1ca09b6162eb8c652b236b68f2ae39743cb316ad90a6ad133ac4202ee4019a8abca4536599bfcbbf09f493a5c9df0d
62c91d5fa55df364a8df95a66d272d89d7ce9e230dd5bae4cba1388cd5165ce86df6e142614985d7284f26dedfc0d464379f6d49bccbdde5839464a71266dc28
d74dfc25b3af9b48d3860c8d4c3be27b9f23ca5c8455a8116fe39b71151e6ebcc0169c55103782ffcaec65fc394c49e3936ab2e099df9c102d896095dbeda9f1
220f8c9a6f5bfda9e18e428a2adcab1dba1ca09b6162eb8c652b236b68f2ae39743cb316ad90a6ad133ac4202ee4019a8abca4536599bfcbbf09f493a5c9df0d
2ad13092a45eb1d7bc450ee22db934584177738f7eb36eebc39e6ab2dc3ba5f9f99d497804c41cf084d68b306af28f06946d271722310a51799fd5f4bdce6b6c
f5eeffb897f78f8cac7cfa41e7b26da2ba1ca09b6162eb8c652b236b68f2ae39743cb316ad90a6ad133ac4202ee4019a8abca4536599bfcbbf09f493a5c9df0d
32b79fa94c62adba84cc1197a70e24749f23ca5c8455a8116fe39b71151e6ebcc0169c55103782ffcaec65fc394c49e3936ab2e099df9c102d896095dbeda9f1
5764d48bb5e6a30e4b59f6ebfb72b9534177738f7eb36eebc39e6ab2dc3ba5f9f99d497804c41cf084d68b306af28f06946d271722310a51799fd5f4bdce6b6c
4280d75d2a924363dd93173051e46a589f23ca5c8455a8116fe39b71151e6ebcc0169c55103782ffcaec65fc394c49e3936ab2e099df9c102d896095dbeda9f1
4eda589b6df035933901fecfa044bf269f23ca5c8455a8116fe39b71151e6ebcc0169c55103782ffcaec65fc394c49e3936ab2e099df9c102d896095dbeda9f1
cee980e7e4094b6f9011614a7aee7b9a2ca30276ab2139ea6dde2cdc9ee8107cf1e617fb35e4f60301aac79a5b3d6db173fbd2dafb06f4fac1cd36df5e2350bb
ddd656f4f67cd93e70465594ecaad940d7ce9e230dd5bae4cba1388cd5165ce86df6e142614985d7284f26dedfc0d464379f6d49bccbdde5839464a71266dc28


$CDNENCFINISH_ADV2


.MODEL DTLP2362_2 D 
$CDNENCSTART_ADV2
17f62b1fb318c25603aeb85644ae98a5d179ef807807791f6459efacb9d7ffc35a73a37243d4cce46a460e928d7c8f9c39ee99122a9d3f96f7d47fafa32ba578
ebc6c9bdaebc4b994549ca2e40ece97f9477c26a2f4e593e3ba20bbc99e62af108a8c2d9228eac072a6ec9d6fa951bcc6481076e4ede9ab101ee89d6be643b25
1b7991505b3938d3125437f5ee43294615a9b8be2a1459a3eea35d514ecde1111dc232113d104876051aa0261cd96f7b85bf016f58541e10c92226ac84209599
ddd656f4f67cd93e70465594ecaad940d7ce9e230dd5bae4cba1388cd5165ce86df6e142614985d7284f26dedfc0d464379f6d49bccbdde5839464a71266dc28
$CDNENCFINISH_ADV2
